<?xml version="1.0" encoding="UTF-8"?>

<!-- generated on 2023-04-12 20:09:04 by Eclipse SUMO netconvert Version 1.16.0
<configuration xmlns:xsi="http://www.w3.org/2001/XMLSchema-instance" xsi:noNamespaceSchemaLocation="http://sumo.dlr.de/xsd/netconvertConfiguration.xsd">

    <input>
        <osm-files value="map.osm"/>
    </input>

    <output>
        <output-file value="map.net.xml"/>
    </output>

    <projection>
        <proj.utm value="true"/>
    </projection>

</configuration>
-->

<net version="1.16" junctionCornerDetail="5" limitTurnSpeed="5.50" xmlns:xsi="http://www.w3.org/2001/XMLSchema-instance" xsi:noNamespaceSchemaLocation="http://sumo.dlr.de/xsd/net_file.xsd">

    <location netOffset="-587905.39,-4067049.77" convBoundary="0.00,0.00,2910.83,11456.52" origBoundary="117.985372,36.744993,118.017974,36.848197" projParameter="+proj=utm +zone=50 +ellps=WGS84 +datum=WGS84 +units=m +no_defs"/>

    <type id="highway.bridleway" priority="1" numLanes="1" speed="2.78" allow="pedestrian" oneway="1" width="2.00"/>
    <type id="highway.bus_guideway" priority="1" numLanes="1" speed="27.78" allow="bus" oneway="1"/>
    <type id="highway.cycleway" priority="1" numLanes="1" speed="5.56" allow="bicycle" oneway="0" width="1.00"/>
    <type id="highway.footway" priority="1" numLanes="1" speed="2.78" allow="pedestrian" oneway="1" width="2.00"/>
    <type id="highway.ford" priority="1" numLanes="1" speed="2.78" allow="army" oneway="0"/>
    <type id="highway.living_street" priority="2" numLanes="1" speed="2.78" disallow="tram rail_urban rail rail_electric rail_fast ship" oneway="0"/>
    <type id="highway.motorway" priority="14" numLanes="2" speed="39.44" allow="private emergency authority army vip passenger hov taxi bus coach delivery truck trailer motorcycle evehicle custom1 custom2" oneway="1"/>
    <type id="highway.motorway_link" priority="9" numLanes="1" speed="22.22" allow="private emergency authority army vip passenger hov taxi bus coach delivery truck trailer motorcycle evehicle custom1 custom2" oneway="1"/>
    <type id="highway.path" priority="1" numLanes="1" speed="5.56" allow="pedestrian bicycle" oneway="0" width="2.00"/>
    <type id="highway.pedestrian" priority="1" numLanes="1" speed="2.78" allow="pedestrian" oneway="1" width="2.00"/>
    <type id="highway.primary" priority="12" numLanes="2" speed="27.78" disallow="tram rail_urban rail rail_electric rail_fast ship" oneway="0"/>
    <type id="highway.primary_link" priority="7" numLanes="1" speed="22.22" disallow="tram rail_urban rail rail_electric rail_fast ship" oneway="0"/>
    <type id="highway.raceway" priority="15" numLanes="2" speed="83.33" allow="vip" oneway="0"/>
    <type id="highway.residential" priority="3" numLanes="1" speed="13.89" disallow="tram rail_urban rail rail_electric rail_fast ship" oneway="0"/>
    <type id="highway.secondary" priority="11" numLanes="1" speed="27.78" disallow="tram rail_urban rail rail_electric rail_fast ship" oneway="0"/>
    <type id="highway.secondary_link" priority="6" numLanes="1" speed="22.22" disallow="tram rail_urban rail rail_electric rail_fast ship" oneway="0"/>
    <type id="highway.service" priority="1" numLanes="1" speed="5.56" allow="pedestrian delivery bicycle" oneway="0"/>
    <type id="highway.stairs" priority="1" numLanes="1" speed="1.39" allow="pedestrian" oneway="1" width="2.00"/>
    <type id="highway.step" priority="1" numLanes="1" speed="1.39" allow="pedestrian" oneway="1" width="2.00"/>
    <type id="highway.steps" priority="1" numLanes="1" speed="1.39" allow="pedestrian" oneway="1" width="2.00"/>
    <type id="highway.tertiary" priority="10" numLanes="1" speed="22.22" disallow="tram rail_urban rail rail_electric rail_fast ship" oneway="0"/>
    <type id="highway.tertiary_link" priority="5" numLanes="1" speed="22.22" disallow="tram rail_urban rail rail_electric rail_fast ship" oneway="0"/>
    <type id="highway.track" priority="1" numLanes="1" speed="5.56" allow="pedestrian motorcycle moped bicycle" oneway="0"/>
    <type id="highway.trunk" priority="13" numLanes="2" speed="27.78" disallow="pedestrian bicycle tram rail_urban rail rail_electric rail_fast ship" oneway="0"/>
    <type id="highway.trunk_link" priority="8" numLanes="1" speed="22.22" disallow="pedestrian bicycle tram rail_urban rail rail_electric rail_fast ship" oneway="0"/>
    <type id="highway.unclassified" priority="4" numLanes="1" speed="13.89" disallow="tram rail_urban rail rail_electric rail_fast ship" oneway="0"/>
    <type id="highway.unsurfaced" priority="1" numLanes="1" speed="8.33" disallow="tram rail_urban rail rail_electric rail_fast ship" oneway="0"/>
    <type id="railway.highspeed" priority="21" numLanes="1" speed="69.44" allow="rail_fast" oneway="1"/>
    <type id="railway.light_rail" priority="19" numLanes="1" speed="27.78" allow="rail_urban" oneway="1"/>
    <type id="railway.preserved" priority="16" numLanes="1" speed="27.78" allow="rail" oneway="1"/>
    <type id="railway.rail" priority="20" numLanes="1" speed="44.44" allow="rail" oneway="1"/>
    <type id="railway.subway" priority="18" numLanes="1" speed="27.78" allow="rail_urban" oneway="1"/>
    <type id="railway.tram" priority="17" numLanes="1" speed="13.89" allow="tram" oneway="1"/>

    <edge id=":3694701936_0" function="internal">
        <lane id=":3694701936_0_0" index="0" disallow="tram rail_urban rail rail_electric rail_fast ship" speed="6.65" length="9.19" shape="1694.28,5891.90 1691.90,5892.46 1690.24,5893.69 1689.29,5895.58 1689.06,5898.13"/>
    </edge>
    <edge id=":3694701936_1" function="internal">
        <lane id=":3694701936_1_0" index="0" disallow="tram rail_urban rail rail_electric rail_fast ship" speed="27.78" length="17.42" shape="1694.28,5891.90 1676.93,5893.40"/>
    </edge>
    <edge id=":3694701936_2" function="internal">
        <lane id=":3694701936_2_0" index="0" disallow="tram rail_urban rail rail_electric rail_fast ship" speed="27.78" length="10.90" shape="1688.56,5887.25 1689.06,5898.13"/>
        <lane id=":3694701936_2_1" index="1" disallow="tram rail_urban rail rail_electric rail_fast ship" speed="27.78" length="10.90" shape="1685.36,5887.40 1685.87,5898.28"/>
        <lane id=":3694701936_2_2" index="2" disallow="tram rail_urban rail rail_electric rail_fast ship" speed="27.78" length="10.90" shape="1682.16,5887.55 1682.67,5898.43"/>
    </edge>
    <edge id=":3694701936_5" function="internal">
        <lane id=":3694701936_5_0" index="0" disallow="tram rail_urban rail rail_electric rail_fast ship" speed="6.55" length="8.88" shape="1682.16,5887.55 1681.93,5889.93 1680.98,5891.70 1679.31,5892.86 1676.93,5893.40"/>
    </edge>
    <edge id=":3694701962_0" function="internal">
        <lane id=":3694701962_0_0" index="0" disallow="tram rail_urban rail rail_electric rail_fast ship" speed="6.42" length="9.04" shape="1688.03,5875.85 1688.49,5878.30 1689.63,5879.97 1691.45,5880.88 1693.93,5881.02"/>
    </edge>
    <edge id=":3694701962_1" function="internal">
        <lane id=":3694701962_1_0" index="0" disallow="tram rail_urban rail rail_electric rail_fast ship" speed="27.78" length="11.21" shape="1688.03,5875.85 1688.55,5887.05"/>
        <lane id=":3694701962_1_1" index="1" disallow="tram rail_urban rail rail_electric rail_fast ship" speed="27.78" length="11.21" shape="1684.83,5876.00 1685.35,5887.20"/>
        <lane id=":3694701962_1_2" index="2" disallow="tram rail_urban rail rail_electric rail_fast ship" speed="27.78" length="11.21" shape="1681.63,5876.15 1682.15,5887.35"/>
    </edge>
    <edge id=":3694701962_4" function="internal">
        <lane id=":3694701962_4_0" index="0" disallow="tram rail_urban rail rail_electric rail_fast ship" speed="27.78" length="17.73" shape="1676.26,5882.55 1693.93,5881.02"/>
    </edge>
    <edge id=":3694701962_5" function="internal">
        <lane id=":3694701962_5_0" index="0" disallow="tram rail_urban rail rail_electric rail_fast ship" speed="7.17" length="11.53" shape="1676.26,5882.55 1680.14,5882.55 1682.95,5883.33 1684.69,5884.88 1685.35,5887.20"/>
        <lane id=":3694701962_5_1" index="1" disallow="tram rail_urban rail rail_electric rail_fast ship" speed="6.33" length="8.74" shape="1676.26,5882.55 1678.75,5882.67 1680.56,5883.50 1681.69,5885.06 1682.15,5887.35"/>
    </edge>
    <edge id=":3694701985_0" function="internal">
        <lane id=":3694701985_0_0" index="0" disallow="tram rail_urban rail rail_electric rail_fast ship" speed="6.42" length="9.04" shape="1660.06,5900.54 1659.59,5898.10 1658.45,5896.42 1656.64,5895.51 1654.15,5895.37"/>
    </edge>
    <edge id=":3694701985_1" function="internal">
        <lane id=":3694701985_1_0" index="0" disallow="tram rail_urban rail rail_electric rail_fast ship" speed="27.78" length="11.21" shape="1660.06,5900.54 1659.54,5889.35"/>
        <lane id=":3694701985_1_1" index="1" disallow="tram rail_urban rail rail_electric rail_fast ship" speed="27.78" length="11.21" shape="1663.25,5900.39 1662.74,5889.20"/>
        <lane id=":3694701985_1_2" index="2" disallow="tram rail_urban rail rail_electric rail_fast ship" speed="27.78" length="11.21" shape="1666.45,5900.25 1665.93,5889.05"/>
    </edge>
    <edge id=":3694701985_4" function="internal">
        <lane id=":3694701985_4_0" index="0" disallow="tram rail_urban rail rail_electric rail_fast ship" speed="27.78" length="17.74" shape="1671.82,5893.85 1654.15,5895.37"/>
    </edge>
    <edge id=":3694701985_5" function="internal">
        <lane id=":3694701985_5_0" index="0" disallow="tram rail_urban rail rail_electric rail_fast ship" speed="7.17" length="11.53" shape="1671.82,5893.85 1667.94,5893.84 1665.13,5893.07 1663.40,5891.52 1662.74,5889.20"/>
        <lane id=":3694701985_5_1" index="1" disallow="tram rail_urban rail rail_electric rail_fast ship" speed="6.33" length="8.74" shape="1671.82,5893.85 1669.34,5893.73 1667.53,5892.89 1666.39,5891.33 1665.93,5889.05"/>
    </edge>
    <edge id=":3694702012_0" function="internal">
        <lane id=":3694702012_0_0" index="0" disallow="tram rail_urban rail rail_electric rail_fast ship" speed="27.78" length="10.90" shape="1659.53,5889.15 1659.03,5878.26"/>
        <lane id=":3694702012_0_1" index="1" disallow="tram rail_urban rail rail_electric rail_fast ship" speed="27.78" length="10.90" shape="1662.73,5889.00 1662.22,5878.11"/>
        <lane id=":3694702012_0_2" index="2" disallow="tram rail_urban rail rail_electric rail_fast ship" speed="27.78" length="10.90" shape="1665.92,5888.85 1665.42,5877.96"/>
    </edge>
    <edge id=":3694702012_3" function="internal">
        <lane id=":3694702012_3_0" index="0" disallow="tram rail_urban rail rail_electric rail_fast ship" speed="6.55" length="8.89" shape="1665.92,5888.85 1666.16,5886.47 1667.11,5884.69 1668.78,5883.54 1671.16,5882.99"/>
    </edge>
    <edge id=":3694702012_4" function="internal">
        <lane id=":3694702012_4_0" index="0" disallow="tram rail_urban rail rail_electric rail_fast ship" speed="6.65" length="9.19" shape="1653.81,5884.49 1656.19,5883.93 1657.85,5882.70 1658.80,5880.81 1659.03,5878.26"/>
    </edge>
    <edge id=":3694702012_5" function="internal">
        <lane id=":3694702012_5_0" index="0" disallow="tram rail_urban rail rail_electric rail_fast ship" speed="27.78" length="17.42" shape="1653.81,5884.49 1671.16,5882.99"/>
    </edge>
    <edge id=":8976006491_0" function="internal">
        <lane id=":8976006491_0_0" index="0" disallow="tram rail_urban rail rail_electric rail_fast ship" speed="3.65" length="4.67" shape="1525.97,6245.27 1525.08,6246.40 1524.25,6246.74 1523.49,6246.28 1522.78,6245.02"/>
    </edge>
    <edge id=":8976006503_0" function="internal">
        <lane id=":8976006503_0_0" index="0" disallow="tram rail_urban rail rail_electric rail_fast ship" speed="6.57" length="9.09" shape="1543.57,6093.50 1542.93,6091.11 1541.67,6089.48 1539.80,6088.62 1537.30,6088.51"/>
    </edge>
    <edge id=":8976006503_1" function="internal">
        <lane id=":8976006503_1_0" index="0" disallow="tram rail_urban rail rail_electric rail_fast ship" speed="13.89" length="14.37" shape="1543.57,6093.50 1542.01,6079.21"/>
    </edge>
    <edge id=":8976006503_2" function="internal">
        <lane id=":8976006503_2_0" index="0" disallow="tram rail_urban rail rail_electric rail_fast ship" speed="3.65" length="1.44" shape="1543.57,6093.50 1544.22,6092.21"/>
    </edge>
    <edge id=":8976006503_9" function="internal">
        <lane id=":8976006503_9_0" index="0" disallow="tram rail_urban rail rail_electric rail_fast ship" speed="3.65" length="3.23" shape="1544.22,6092.21 1544.97,6091.72 1545.81,6092.03 1546.74,6093.12"/>
    </edge>
    <edge id=":8976006503_3" function="internal">
        <lane id=":8976006503_3_0" index="0" disallow="tram rail_urban rail rail_electric rail_fast ship" speed="13.89" length="14.32" shape="1545.20,6078.89 1546.74,6093.12"/>
    </edge>
    <edge id=":8976006503_4" function="internal">
        <lane id=":8976006503_4_0" index="0" disallow="tram rail_urban rail rail_electric rail_fast ship" speed="7.99" length="4.01" shape="1545.20,6078.89 1545.03,6082.78 1544.99,6082.88"/>
    </edge>
    <edge id=":8976006503_5" function="internal">
        <lane id=":8976006503_5_0" index="0" disallow="tram rail_urban rail rail_electric rail_fast ship" speed="3.65" length="1.44" shape="1545.20,6078.89 1544.52,6080.16"/>
    </edge>
    <edge id=":8976006503_10" function="internal">
        <lane id=":8976006503_10_0" index="0" disallow="tram rail_urban rail rail_electric rail_fast ship" speed="7.99" length="10.20" shape="1544.99,6082.88 1543.66,6085.68 1541.08,6087.59 1537.30,6088.51"/>
    </edge>
    <edge id=":8976006503_11" function="internal">
        <lane id=":8976006503_11_0" index="0" disallow="tram rail_urban rail rail_electric rail_fast ship" speed="3.65" length="3.23" shape="1544.52,6080.16 1543.77,6080.64 1542.93,6080.32 1542.01,6079.21"/>
    </edge>
    <edge id=":8976006503_6" function="internal">
        <lane id=":8976006503_6_0" index="0" disallow="tram rail_urban rail rail_electric rail_fast ship" speed="6.50" length="9.03" shape="1536.99,6085.32 1539.40,6084.74 1541.04,6083.52 1541.91,6081.68 1542.01,6079.21"/>
    </edge>
    <edge id=":8976006503_7" function="internal">
        <lane id=":8976006503_7_0" index="0" disallow="tram rail_urban rail rail_electric rail_fast ship" speed="8.06" length="14.18" shape="1536.99,6085.32 1540.88,6085.49 1543.80,6086.85 1545.75,6089.40 1546.74,6093.12"/>
    </edge>
    <edge id=":8976006503_8" function="internal">
        <lane id=":8976006503_8_0" index="0" disallow="tram rail_urban rail rail_electric rail_fast ship" speed="3.65" length="4.67" shape="1536.99,6085.32 1538.26,6086.00 1538.74,6086.76 1538.42,6087.60 1537.30,6088.51"/>
    </edge>
    <edge id=":9710849417_0" function="internal">
        <lane id=":9710849417_0_0" index="0" disallow="tram rail_urban rail rail_electric rail_fast ship" speed="7.25" length="21.42" shape="1934.40,11435.96 1931.49,11440.77 1926.67,11442.41 1921.80,11440.89 1918.78,11436.16"/>
        <lane id=":9710849417_0_1" index="1" disallow="tram rail_urban rail rail_electric rail_fast ship" speed="5.77" length="12.85" shape="1931.26,11435.31 1929.52,11438.19 1926.63,11439.18 1923.71,11438.26 1921.89,11435.43"/>
        <lane id=":9710849417_0_2" index="2" disallow="tram rail_urban rail rail_electric rail_fast ship" speed="4.70" length="7.87" shape="1928.13,11434.66 1927.38,11437.31 1926.61,11438.20 1925.82,11437.33 1925.01,11434.69"/>
    </edge>
    <edge id=":9920435627_0" function="internal">
        <lane id=":9920435627_0_0" index="0" disallow="tram rail_urban rail rail_electric rail_fast ship" speed="6.82" length="9.43" shape="1536.63,6025.45 1536.01,6023.07 1534.72,6021.39 1532.75,6020.41 1530.11,6020.13"/>
    </edge>
    <edge id=":9920435627_1" function="internal">
        <lane id=":9920435627_1_0" index="0" disallow="tram rail_urban rail rail_electric rail_fast ship" speed="13.89" length="14.42" shape="1536.63,6025.45 1535.20,6011.10"/>
    </edge>
    <edge id=":9920435627_2" function="internal">
        <lane id=":9920435627_2_0" index="0" disallow="tram rail_urban rail rail_electric rail_fast ship" speed="3.65" length="1.44" shape="1536.63,6025.45 1537.30,6024.18"/>
    </edge>
    <edge id=":9920435627_9" function="internal">
        <lane id=":9920435627_9_0" index="0" disallow="tram rail_urban rail rail_electric rail_fast ship" speed="3.65" length="3.23" shape="1537.30,6024.18 1538.06,6023.70 1538.89,6024.02 1539.81,6025.13"/>
    </edge>
    <edge id=":9920435627_3" function="internal">
        <lane id=":9920435627_3_0" index="0" disallow="tram rail_urban rail rail_electric rail_fast ship" speed="13.89" length="14.41" shape="1538.39,6010.79 1539.81,6025.13"/>
    </edge>
    <edge id=":9920435627_4" function="internal">
        <lane id=":9920435627_4_0" index="0" disallow="tram rail_urban rail rail_electric rail_fast ship" speed="7.87" length="4.13" shape="1538.39,6010.79 1538.21,6014.80 1538.16,6014.90"/>
    </edge>
    <edge id=":9920435627_5" function="internal">
        <lane id=":9920435627_5_0" index="0" disallow="tram rail_urban rail rail_electric rail_fast ship" speed="3.65" length="1.44" shape="1538.39,6010.79 1537.71,6012.06"/>
    </edge>
    <edge id=":9920435627_10" function="internal">
        <lane id=":9920435627_10_0" index="0" disallow="tram rail_urban rail rail_electric rail_fast ship" speed="7.87" length="10.36" shape="1538.16,6014.90 1536.77,6017.69 1534.07,6019.47 1530.11,6020.13"/>
    </edge>
    <edge id=":9920435627_11" function="internal">
        <lane id=":9920435627_11_0" index="0" disallow="tram rail_urban rail rail_electric rail_fast ship" speed="3.65" length="3.23" shape="1537.71,6012.06 1536.95,6012.54 1536.12,6012.22 1535.20,6011.10"/>
    </edge>
    <edge id=":9920435627_6" function="internal">
        <lane id=":9920435627_6_0" index="0" disallow="tram rail_urban rail rail_electric rail_fast ship" speed="6.35" length="9.04" shape="1530.04,6016.93 1532.51,6016.52 1534.19,6015.41 1535.09,6013.60 1535.20,6011.10"/>
    </edge>
    <edge id=":9920435627_7" function="internal">
        <lane id=":9920435627_7_0" index="0" disallow="tram rail_urban rail rail_electric rail_fast ship" speed="8.27" length="14.31" shape="1530.04,6016.93 1534.00,6017.37 1536.95,6018.88 1538.88,6021.47 1539.81,6025.13"/>
    </edge>
    <edge id=":9920435627_8" function="internal">
        <lane id=":9920435627_8_0" index="0" disallow="tram rail_urban rail rail_electric rail_fast ship" speed="3.65" length="4.67" shape="1530.04,6016.93 1531.25,6017.70 1531.67,6018.49 1531.29,6019.30 1530.11,6020.13"/>
    </edge>
    <edge id=":9920435734_0" function="internal">
        <lane id=":9920435734_0_0" index="0" disallow="tram rail_urban rail rail_electric rail_fast ship" speed="6.63" length="9.20" shape="1532.76,5986.30 1532.17,5983.91 1530.92,5982.26 1529.02,5981.34 1526.48,5981.16"/>
    </edge>
    <edge id=":9920435734_1" function="internal">
        <lane id=":9920435734_1_0" index="0" disallow="tram rail_urban rail rail_electric rail_fast ship" speed="13.89" length="14.41" shape="1532.76,5986.30 1531.35,5971.97"/>
    </edge>
    <edge id=":9920435734_2" function="internal">
        <lane id=":9920435734_2_0" index="0" disallow="tram rail_urban rail rail_electric rail_fast ship" speed="3.65" length="1.44" shape="1532.76,5986.30 1533.44,5985.03"/>
    </edge>
    <edge id=":9920435734_9" function="internal">
        <lane id=":9920435734_9_0" index="0" disallow="tram rail_urban rail rail_electric rail_fast ship" speed="3.65" length="3.23" shape="1533.44,5985.03 1534.20,5984.56 1535.04,5984.87 1535.95,5985.99"/>
    </edge>
    <edge id=":9920435734_3" function="internal">
        <lane id=":9920435734_3_0" index="0" disallow="tram rail_urban rail rail_electric rail_fast ship" speed="13.89" length="14.41" shape="1534.53,5971.65 1535.95,5985.99"/>
    </edge>
    <edge id=":9920435734_4" function="internal">
        <lane id=":9920435734_4_0" index="0" disallow="tram rail_urban rail rail_electric rail_fast ship" speed="7.94" length="4.10" shape="1534.53,5971.65 1534.36,5975.59 1534.29,5975.73"/>
    </edge>
    <edge id=":9920435734_5" function="internal">
        <lane id=":9920435734_5_0" index="0" disallow="tram rail_urban rail rail_electric rail_fast ship" speed="3.65" length="1.44" shape="1534.53,5971.65 1533.85,5972.93"/>
    </edge>
    <edge id=":9920435734_10" function="internal">
        <lane id=":9920435734_10_0" index="0" disallow="tram rail_urban rail rail_electric rail_fast ship" speed="7.94" length="10.22" shape="1534.29,5975.73 1532.96,5978.49 1530.33,5980.34 1526.48,5981.16"/>
    </edge>
    <edge id=":9920435734_11" function="internal">
        <lane id=":9920435734_11_0" index="0" disallow="tram rail_urban rail rail_electric rail_fast ship" speed="3.65" length="3.23" shape="1533.85,5972.93 1533.10,5973.40 1532.26,5973.08 1531.35,5971.97"/>
    </edge>
    <edge id=":9920435734_6" function="internal">
        <lane id=":9920435734_6_0" index="0" disallow="tram rail_urban rail rail_electric rail_fast ship" speed="6.44" length="9.03" shape="1526.26,5977.97 1528.70,5977.45 1530.36,5976.28 1531.24,5974.45 1531.35,5971.97"/>
    </edge>
    <edge id=":9920435734_7" function="internal">
        <lane id=":9920435734_7_0" index="0" disallow="tram rail_urban rail rail_electric rail_fast ship" speed="8.11" length="14.24" shape="1526.26,5977.97 1530.18,5978.25 1533.10,5979.68 1535.03,5982.26 1535.95,5985.99"/>
    </edge>
    <edge id=":9920435734_8" function="internal">
        <lane id=":9920435734_8_0" index="0" disallow="tram rail_urban rail rail_electric rail_fast ship" speed="3.65" length="4.67" shape="1526.26,5977.97 1527.51,5978.69 1527.97,5979.46 1527.62,5980.28 1526.48,5981.16"/>
    </edge>
    <edge id=":9938706611_0" function="internal">
        <lane id=":9938706611_0_0" index="0" disallow="tram rail_urban rail rail_electric rail_fast ship" speed="3.65" length="4.67" shape="1523.89,6020.26 1522.67,6019.49 1522.25,6018.70 1522.63,6017.89 1523.82,6017.07"/>
    </edge>
    <edge id=":9938706612_0" function="internal">
        <lane id=":9938706612_0_0" index="0" disallow="tram rail_urban rail rail_electric rail_fast ship" speed="3.65" length="4.67" shape="1520.59,5981.55 1519.34,5980.83 1518.89,5980.06 1519.23,5979.23 1520.38,5978.36"/>
    </edge>

    <edge id="-1082245989" from="9938706611" to="9920435627" priority="4" type="highway.unclassified">
        <lane id="-1082245989_0" index="0" disallow="tram rail_urban rail rail_electric rail_fast ship" speed="13.89" length="6.22" shape="1523.82,6017.07 1530.04,6016.93"/>
    </edge>
    <edge id="-1082245995" from="9938706612" to="9920435734" priority="4" type="highway.unclassified">
        <lane id="-1082245995_0" index="0" disallow="tram rail_urban rail rail_electric rail_fast ship" speed="13.89" length="5.90" shape="1520.38,5978.36 1526.26,5977.97"/>
    </edge>
    <edge id="-969968872#0" from="8976006503" to="8976006491" priority="4" type="highway.unclassified" shape="1544.32,6086.22 1550.27,6137.01 1556.08,6186.61 1555.53,6191.25 1525.09,6236.18 1524.38,6245.15">
        <lane id="-969968872#0_0" index="0" disallow="tram rail_urban rail rail_electric rail_fast ship" speed="13.89" length="162.19" shape="1546.74,6093.12 1551.86,6136.83 1557.69,6186.61 1557.07,6191.83 1526.65,6236.72 1525.97,6245.27"/>
    </edge>
    <edge id="-969968872#1" from="9920435734" to="8976006503" priority="4" type="highway.unclassified" shape="1533.66,5979.08 1528.23,5924.46 1451.89,5931.46 1451.47,5932.16 1445.38,5942.39 1438.50,5943.13 1405.83,5946.61 1401.00,5947.13 1393.05,5937.27 1314.22,5946.12 1315.02,5955.11 1329.44,6107.29 1375.17,6102.74 1445.86,6095.69 1544.32,6086.22">
        <lane id="-969968872#1_0" index="0" disallow="tram rail_urban rail rail_electric rail_fast ship" speed="13.89" length="634.62" shape="1531.35,5971.97 1526.79,5926.20 1452.84,5932.98 1446.34,5943.89 1438.67,5944.72 1406.00,5948.20 1400.30,5948.81 1392.35,5938.96 1315.95,5947.53 1316.61,5954.97 1330.88,6105.54 1375.01,6101.14 1445.70,6094.10 1536.99,6085.32"/>
    </edge>
    <edge id="-969968872#2" from="9920435627" to="9920435734" priority="4" type="highway.unclassified">
        <lane id="-969968872#2_0" index="0" disallow="tram rail_urban rail rail_electric rail_fast ship" speed="13.89" length="24.92" shape="1535.20,6011.10 1532.76,5986.30"/>
    </edge>
    <edge id="-969968872#3" from="8976006503" to="9920435627" priority="4" type="highway.unclassified">
        <lane id="-969968872#3_0" index="0" disallow="tram rail_urban rail rail_electric rail_fast ship" speed="13.89" length="54.03" shape="1542.01,6079.21 1536.63,6025.45"/>
    </edge>
    <edge id="1082245989" from="9920435627" to="9938706611" priority="4" type="highway.unclassified">
        <lane id="1082245989_0" index="0" disallow="tram rail_urban rail rail_electric rail_fast ship" speed="13.89" length="6.22" shape="1530.11,6020.13 1523.89,6020.26"/>
    </edge>
    <edge id="1082245995" from="9920435734" to="9938706612" priority="4" type="highway.unclassified">
        <lane id="1082245995_0" index="0" disallow="tram rail_urban rail rail_electric rail_fast ship" speed="13.89" length="5.90" shape="1526.48,5981.16 1520.59,5981.55"/>
    </edge>
    <edge id="362355574#0" from="3687032501" to="3694701936" priority="11" type="highway.secondary" spreadType="center" shape="2910.83,5852.48 2376.02,5869.70 2360.84,5870.19 2341.27,5870.81 2045.20,5880.36 1698.00,5891.57 1685.61,5892.65">
        <lane id="362355574#0_0" index="0" disallow="tram rail_urban rail rail_electric rail_fast ship" speed="27.78" length="1217.19" shape="2910.83,5852.48 2376.02,5869.70 2360.84,5870.19 2341.27,5870.81 2045.20,5880.36 1698.00,5891.57 1694.28,5891.90"/>
    </edge>
    <edge id="362355574#1" from="3694701936" to="3694701985" priority="11" type="highway.secondary" spreadType="center">
        <lane id="362355574#1_0" index="0" disallow="tram rail_urban rail rail_electric rail_fast ship" speed="27.78" length="5.13" shape="1676.93,5893.40 1671.82,5893.85"/>
    </edge>
    <edge id="362355574#2" from="3694701985" to="6202567087" priority="11" type="highway.secondary" spreadType="center" shape="1662.99,5894.61 1649.89,5895.74 1460.33,5914.41 1429.17,5917.48 1412.31,5919.54 1379.25,5922.54 1360.95,5924.20 1273.06,5932.79 1179.42,5939.66 861.58,5958.89 839.84,5960.21 826.66,5960.99 805.13,5962.31 425.63,5986.47 275.94,5994.36 225.03,5997.95 188.99,6004.09 152.68,6011.63 36.27,6042.06 17.95,6046.87 0.87,6052.65">
        <lane id="362355574#2_0" index="0" disallow="tram rail_urban rail rail_electric rail_fast ship" speed="27.78" length="1663.94" shape="1654.15,5895.37 1649.89,5895.74 1460.33,5914.41 1429.17,5917.48 1412.31,5919.54 1379.25,5922.54 1360.95,5924.20 1273.06,5932.79 1179.42,5939.66 861.58,5958.89 839.84,5960.21 826.66,5960.99 805.13,5962.31 425.63,5986.47 275.94,5994.36 225.03,5997.95 188.99,6004.09 152.68,6011.63 36.27,6042.06 17.95,6046.87 0.87,6052.65"/>
    </edge>
    <edge id="365455702#0" from="3694701798" to="3694701962" priority="11" type="highway.secondary" spreadType="center" shape="1316.84,0.00 1437.25,1799.71 1438.76,1822.15 1484.35,2503.64 1509.54,2880.40 1511.13,2904.09 1511.82,2914.46 1512.83,2929.58 1513.43,2938.55 1549.58,3479.14 1550.13,3487.40 1550.76,3496.74 1587.36,4045.37 1588.16,4057.37 1623.03,4577.53 1624.11,4593.73 1625.08,4608.45 1626.59,4631.21 1627.60,4646.69 1628.43,4659.18 1648.67,5095.79 1650.19,5127.08 1650.47,5131.17 1651.42,5155.17 1684.34,5865.39 1685.10,5881.78">
        <lane id="365455702#0_0" index="0" disallow="tram rail_urban rail rail_electric rail_fast ship" speed="27.78" length="5887.71" shape="1320.03,-0.21 1440.44,1799.49 1441.95,1821.93 1487.54,2503.43 1512.74,2880.19 1514.32,2903.88 1515.01,2914.25 1516.02,2929.37 1516.63,2938.34 1552.77,3478.93 1553.33,3487.19 1553.95,3496.52 1590.55,4045.16 1591.35,4057.16 1626.23,4577.32 1627.30,4593.52 1628.27,4608.24 1629.78,4631.00 1630.79,4646.48 1631.63,4659.00 1651.87,5095.64 1653.38,5126.92 1653.66,5131.00 1654.62,5155.04 1687.54,5865.24 1688.03,5875.85"/>
        <lane id="365455702#0_1" index="1" disallow="tram rail_urban rail rail_electric rail_fast ship" speed="27.78" length="5887.71" shape="1316.84,0.00 1437.25,1799.71 1438.76,1822.15 1484.35,2503.64 1509.54,2880.40 1511.13,2904.09 1511.82,2914.46 1512.83,2929.58 1513.43,2938.55 1549.58,3479.14 1550.13,3487.40 1550.76,3496.74 1587.36,4045.37 1588.16,4057.37 1623.03,4577.53 1624.11,4593.73 1625.08,4608.45 1626.59,4631.21 1627.60,4646.69 1628.43,4659.18 1648.67,5095.79 1650.19,5127.08 1650.47,5131.17 1651.42,5155.17 1684.34,5865.39 1684.83,5876.00"/>
        <lane id="365455702#0_2" index="2" disallow="tram rail_urban rail rail_electric rail_fast ship" speed="27.78" length="5887.71" shape="1313.65,0.21 1434.06,1799.92 1435.56,1822.36 1481.15,2503.86 1506.35,2880.61 1507.93,2904.31 1508.63,2914.68 1509.64,2929.80 1510.24,2938.77 1546.39,3479.35 1546.94,3487.61 1547.57,3496.95 1584.17,4045.59 1584.97,4057.59 1619.84,4577.75 1620.91,4593.94 1621.88,4608.67 1623.39,4631.43 1624.41,4646.90 1625.24,4659.36 1645.47,5095.94 1646.99,5127.24 1647.27,5131.34 1648.22,5155.31 1681.14,5865.54 1681.63,5876.15"/>
    </edge>
    <edge id="365455702#1" from="3694701962" to="3694701936" priority="11" type="highway.secondary" spreadType="center">
        <lane id="365455702#1_0" index="0" disallow="tram rail_urban rail rail_electric rail_fast ship" speed="27.78" length="0.20" shape="1688.55,5887.05 1688.56,5887.25"/>
        <lane id="365455702#1_1" index="1" disallow="tram rail_urban rail rail_electric rail_fast ship" speed="27.78" length="0.20" shape="1685.35,5887.20 1685.36,5887.40"/>
        <lane id="365455702#1_2" index="2" disallow="tram rail_urban rail rail_electric rail_fast ship" speed="27.78" length="0.20" shape="1682.15,5887.35 1682.16,5887.55"/>
    </edge>