<?xml version="1.0" encoding="UTF-8"?>
<routes>

   <vType id="Car" length="2" maxSpeed="60" accel="5" decel="2" sigma="0.0"/>
    <flow id ='n1' color='1,0,0' begin='0' end='3600' vehsPerHour='402' type='Car'>
    <route edges='-E9 -E1 E0 E4 E2'/>
    </flow>
    <flow id ='n2' color='0,1,0' begin='0' end='3600' vehsPerHour='318' type='Car'>
    <route edges='-E9 -E1 E0 -E5 E7 E8'/>
    </flow>
    <flow id ='n3' color='0,0,1' begin='0' end='3600' vehsPerHour='258' type='Car'>
    <route edges='-E9 -E1 E0 E3 E6 E10'/>   
    </flow> 
    <flow id ='s1' color='1,0,0' begin='0' end='3600' vehsPerHour='720' type='Car'>
    <route edges='-E2 -E4 -E0 E1 E9'/>  
    </flow>
    <flow id ='s2' color='0,1,0' begin='0' end='3600' vehsPerHour='306' type='Car'>
    <route edges='-E2 -E4 E3 E6 E10'/>  
    </flow>
    <flow id ='s3' color='0,0,3' begin='0' end='3600' vehsPerHour='72' type='Car'>
    <route edges='-E2 -E4 -E5 E7 E8'/>  
    </flow>
    <flow id ='w1' color='1,0,0' begin='0' end='3600' vehsPerHour='336' type='Car'>
    <route edges='-E10 -E6 -E3 -E5 E7 E8'/> 
    </flow> 
    <flow id ='w2' color='0,1,0' begin='0' end='3600' vehsPerHour='228' type='Car'>
    <route edges='-E10 -E6 -E3 -E0 E1 E9'/>  
    </flow>
    <flow id ='w3' color='0,0,1' begin='0' end='3600' vehsPerHour='354' type='Car'>
    <route edges='-E10 -E6 -E3 E4 E2'/>  
    </flow>
    <flow id ='e1' color='1,0,0' begin='0' end='3600' vehsPerHour='300' type='Car'>
    <route edges='-E8 -E7 E5 E3 E6 E10'/>
    </flow>  
    <flow id ='e2' color='0,1,0' begin='0' end='3600' vehsPerHour='300' type='Car'>
    <route edges='-E8 -E7 E5 E4 E2'/>  
    </flow>
    <flow id ='e3' color='0,0,1' begin='0' end='3600' vehsPerHour='100' type='Car'>
    <route edges='-E8 -E7 E5 -E0 E1 E9'/>  
    </flow>
</routes>
