<?xml version="1.0" encoding="UTF-8"?>

<!-- generated on 2023-04-17 19:54:24 by Eclipse SUMO netedit Version 1.16.0
<configuration xmlns:xsi="http://www.w3.org/2001/XMLSchema-instance" xsi:noNamespaceSchemaLocation="http://sumo.dlr.de/xsd/netconvertConfiguration.xsd">

    <input>
        <sumo-net-file value="/Users/huaniaofengyue/Desktop/毕业设计/beijing-heping.net.xml"/>
    </input>

    <output>
        <output-file value="/Users/huaniaofengyue/Desktop/毕业设计/beijing-heping.net.xml"/>
    </output>

    <processing>
        <geometry.min-radius.fix.railways value="false"/>
        <geometry.max-grade.fix value="false"/>
        <offset.disable-normalization value="true"/>
        <lefthand value="0"/>
    </processing>

    <junctions>
        <no-turnarounds value="true"/>
        <junctions.corner-detail value="5"/>
        <junctions.limit-turn-speed value="5.50"/>
        <rectangular-lane-cut value="0"/>
    </junctions>

    <pedestrian>
        <walkingareas value="0"/>
    </pedestrian>

</configuration>
-->

<net version="1.16" junctionCornerDetail="5" limitTurnSpeed="5.50" xmlns:xsi="http://www.w3.org/2001/XMLSchema-instance" xsi:noNamespaceSchemaLocation="http://sumo.dlr.de/xsd/net_file.xsd">

    <location netOffset="0.00,0.00" convBoundary="-126.42,-58.89,105.33,141.23" origBoundary="-10000000000.00,-10000000000.00,10000000000.00,10000000000.00" projParameter="!"/>

    <edge id=":J0_0" function="internal">
        <lane id=":J0_0_0" index="0" allow="bicycle" speed="13.89" length="8.12" width="1.00" shape="9.92,80.80 9.95,89.00"/>
        <lane id=":J0_0_1" index="1" disallow="pedestrian" speed="13.89" length="8.12" shape="7.82,80.83 7.85,88.99"/>
        <lane id=":J0_0_2" index="2" disallow="pedestrian" speed="13.89" length="8.12" shape="4.62,80.87 4.66,88.97"/>
        <lane id=":J0_0_3" index="3" disallow="pedestrian" speed="13.89" length="8.12" shape="1.43,80.92 1.46,88.95"/>
    </edge>
    <edge id=":J0_4" function="internal">
        <lane id=":J0_4_0" index="0" allow="bicycle" speed="13.89" length="8.52" width="1.00" shape="-10.24,88.87 -10.73,86.48 -11.83,85.00 -12.94,83.51 -13.47,81.12"/>
        <lane id=":J0_4_1" index="1" disallow="pedestrian" speed="13.89" length="8.52" shape="-8.14,88.89 -8.63,86.48 -9.73,84.99 -10.84,83.50 -11.37,81.09"/>
        <lane id=":J0_4_2" index="2" disallow="pedestrian" speed="13.89" length="8.52" shape="-4.94,88.91 -5.43,86.48 -6.53,84.98 -7.64,83.47 -8.17,81.05"/>
        <lane id=":J0_4_3" index="3" disallow="pedestrian" speed="13.89" length="8.52" shape="-1.74,88.93 -2.23,86.49 -3.33,84.97 -4.44,83.45 -4.97,81.01"/>
        <lane id=":J0_4_4" index="4" disallow="pedestrian" speed="13.89" length="8.52" shape="-1.74,88.93 -1.77,80.96"/>
    </edge>
    <edge id=":J10_0" function="internal">
        <lane id=":J10_0_0" index="0" allow="bicycle" speed="13.89" length="0.51" width="1.00" shape="13.43,4.49 13.43,5.11"/>
        <lane id=":J10_0_1" index="1" disallow="pedestrian" speed="13.89" length="0.51" shape="11.33,4.51 11.33,5.09"/>
        <lane id=":J10_0_2" index="2" disallow="pedestrian" speed="13.89" length="0.51" shape="8.13,4.55 8.13,5.07"/>
        <lane id=":J10_0_3" index="3" disallow="pedestrian" speed="13.89" length="0.51" shape="4.93,4.58 4.93,5.04"/>
        <lane id=":J10_0_4" index="4" disallow="pedestrian" speed="13.89" length="0.51" shape="1.73,4.62 1.73,5.02"/>
    </edge>
    <edge id=":J10_5" function="internal">
        <lane id=":J10_5_0" index="0" allow="bicycle" speed="13.89" length="0.25" width="1.00" shape="-9.97,4.93 -9.97,4.75"/>
        <lane id=":J10_5_1" index="1" disallow="pedestrian" speed="13.89" length="0.25" shape="-7.87,4.94 -7.87,4.73"/>
        <lane id=":J10_5_2" index="2" disallow="pedestrian" speed="13.89" length="0.25" shape="-4.67,4.97 -4.67,4.69"/>
        <lane id=":J10_5_3" index="3" disallow="pedestrian" speed="13.89" length="0.25" shape="-1.47,4.99 -1.47,4.66"/>
    </edge>
    <edge id=":J3_0" function="internal">
        <lane id=":J3_0_0" index="0" allow="bicycle" speed="13.89" length="7.97" width="1.00" shape="-58.97,35.47 -66.93,35.44"/>
        <lane id=":J3_0_1" index="1" disallow="pedestrian" speed="13.89" length="7.97" shape="-58.96,33.37 -66.93,33.34"/>
        <lane id=":J3_0_2" index="2" disallow="pedestrian" speed="13.89" length="7.97" shape="-58.94,30.17 -66.93,30.14"/>
    </edge>
    <edge id=":J3_3" function="internal">
        <lane id=":J3_3_0" index="0" allow="bicycle" speed="13.89" length="8.66" width="1.00" shape="-66.91,18.44 -64.43,17.95 -62.88,16.85 -61.33,15.76 -58.86,15.27"/>
        <lane id=":J3_3_1" index="1" disallow="pedestrian" speed="13.89" length="8.66" shape="-66.91,20.54 -64.44,20.05 -62.89,18.95 -61.34,17.86 -58.87,17.37"/>
        <lane id=":J3_3_2" index="2" disallow="pedestrian" speed="13.89" length="8.66" shape="-66.92,23.74 -64.45,23.25 -62.90,22.15 -61.36,21.06 -58.89,20.57"/>
        <lane id=":J3_3_3" index="3" disallow="pedestrian" speed="13.89" length="8.66" shape="-66.92,26.94 -64.46,26.45 -62.91,25.35 -61.37,24.26 -58.91,23.77"/>
        <lane id=":J3_3_4" index="4" disallow="pedestrian" speed="13.89" length="8.66" shape="-66.92,26.94 -58.92,26.97"/>
    </edge>
    <edge id=":J4_0" function="internal">
        <lane id=":J4_0_0" index="0" allow="bicycle" speed="13.89" length="0.70" width="1.00" shape="-13.74,61.36 -13.75,60.51"/>
        <lane id=":J4_0_1" index="1" disallow="pedestrian" speed="13.89" length="0.70" shape="-11.65,61.33 -11.65,60.54"/>
        <lane id=":J4_0_2" index="2" disallow="pedestrian" speed="13.89" length="0.70" shape="-8.45,61.29 -8.45,60.58"/>
        <lane id=":J4_0_3" index="3" disallow="pedestrian" speed="13.89" length="0.70" shape="-5.25,61.24 -5.25,60.62"/>
        <lane id=":J4_0_4" index="4" disallow="pedestrian" speed="13.89" length="0.70" shape="-2.05,61.20 -2.05,60.66"/>
    </edge>
    <edge id=":J4_5" function="internal">
        <lane id=":J4_5_0" index="0" allow="bicycle" speed="13.89" length="0.34" width="1.00" shape="9.65,60.80 9.65,61.04"/>
        <lane id=":J4_5_1" index="1" disallow="pedestrian" speed="13.89" length="0.34" shape="7.55,60.78 7.55,61.07"/>
        <lane id=":J4_5_2" index="2" disallow="pedestrian" speed="13.89" length="0.34" shape="4.35,60.74 4.35,61.11"/>
        <lane id=":J4_5_3" index="3" disallow="pedestrian" speed="13.89" length="0.34" shape="1.15,60.70 1.15,61.15"/>
    </edge>
    <edge id=":J5_0" function="internal">
        <lane id=":J5_0_0" index="0" allow="bicycle" speed="6.47" length="9.50" width="1.00" shape="17.42,42.60 14.12,42.86 11.75,43.61 10.32,44.86 9.83,46.59"/>
    </edge>
    <edge id=":J5_1" function="internal">
        <lane id=":J5_1_0" index="0" allow="bicycle" speed="13.89" length="35.66" width="1.00" shape="17.42,42.60 6.99,41.64 -0.01,39.44 -7.00,37.16 -17.43,35.99"/>
    </edge>
    <edge id=":J5_2" function="internal">
        <lane id=":J5_2_0" index="0" allow="bicycle" speed="13.39" length="42.78" width="1.00" shape="17.42,42.60 9.37,39.07 0.34,30.59 -7.02,20.44 -10.02,11.89"/>
    </edge>
    <edge id=":J5_3" function="internal">
        <lane id=":J5_3_0" index="0" disallow="pedestrian" speed="7.67" length="1.12" shape="17.41,40.50 16.30,40.60"/>
    </edge>
    <edge id=":J5_4" function="internal">
        <lane id=":J5_4_0" index="0" disallow="pedestrian" speed="13.89" length="34.98" shape="17.40,37.30 7.04,36.84 -0.00,35.74 -7.05,34.56 -17.40,33.89"/>
        <lane id=":J5_4_1" index="1" disallow="pedestrian" speed="13.89" length="34.98" shape="17.38,34.10 7.05,33.64 0.02,32.54 -7.01,31.36 -17.34,30.69"/>
    </edge>
    <edge id=":J5_6" function="internal">
        <lane id=":J5_6_0" index="0" disallow="pedestrian" speed="11.17" length="28.91" shape="17.37,30.90 10.65,29.21 4.56,24.77 0.15,18.67 -1.53,11.95"/>
    </edge>
    <edge id=":J5_34" function="internal">
        <lane id=":J5_34_0" index="0" disallow="pedestrian" speed="7.67" length="11.68" shape="16.30,40.60 13.20,40.89 10.19,42.04 8.36,43.93 7.73,46.56"/>
    </edge>
    <edge id=":J5_7" function="internal">
        <lane id=":J5_7_0" index="0" allow="bicycle" speed="7.17" length="12.01" width="1.00" shape="13.37,12.07 13.59,16.60 14.32,19.83 15.57,21.76 17.33,22.40"/>
    </edge>
    <edge id=":J5_8" function="internal">
        <lane id=":J5_8_0" index="0" allow="bicycle" speed="13.89" length="34.75" width="1.00" shape="13.37,12.07 12.79,22.34 11.63,29.33 10.45,36.32 9.83,46.59"/>
    </edge>
    <edge id=":J5_9" function="internal">
        <lane id=":J5_9_0" index="0" allow="bicycle" speed="13.06" length="35.69" width="1.00" shape="13.37,12.07 9.78,19.35 1.28,27.22 -8.88,33.49 -12.76,34.63"/>
    </edge>
    <edge id=":J5_10" function="internal">
        <lane id=":J5_10_0" index="0" disallow="pedestrian" speed="8.26" length="1.71" shape="11.27,12.05 11.38,13.77"/>
    </edge>
    <edge id=":J5_11" function="internal">
        <lane id=":J5_11_0" index="0" disallow="pedestrian" speed="13.89" length="34.62" shape="8.08,12.03 7.73,46.56"/>
        <lane id=":J5_11_1" index="1" disallow="pedestrian" speed="13.89" length="34.62" shape="8.08,12.03 7.49,22.30 6.33,29.28 5.15,36.26 4.53,46.52"/>
        <lane id=":J5_11_2" index="2" disallow="pedestrian" speed="13.89" length="34.62" shape="4.88,12.00 4.53,46.52"/>
        <lane id=":J5_11_3" index="3" disallow="pedestrian" speed="13.89" length="34.62" shape="4.88,12.00 4.29,22.27 3.13,29.24 1.95,36.22 1.33,46.48"/>
    </edge>
    <edge id=":J5_15" function="internal">
        <lane id=":J5_15_0" index="0" disallow="pedestrian" speed="11.17" length="28.83" shape="1.68,11.98 -0.08,18.67 -4.53,24.73 -10.63,29.08 -17.34,30.69"/>
    </edge>
    <edge id=":J5_35" function="internal">
        <lane id=":J5_35_0" index="0" allow="bicycle" speed="13.06" length="4.86" width="1.00" shape="-12.76,34.63 -17.43,35.99"/>
    </edge>
    <edge id=":J5_36" function="internal">
        <lane id=":J5_36_0" index="0" disallow="pedestrian" speed="8.26" length="13.61" shape="11.38,13.77 11.62,17.51 12.74,21.40 14.65,23.73 17.34,24.50"/>
    </edge>
    <edge id=":J5_16" function="internal">
        <lane id=":J5_16_0" index="0" allow="bicycle" speed="6.25" length="9.03" width="1.00" shape="-17.09,15.79 -14.01,15.59 -11.81,14.88 -10.48,13.64 -10.02,11.89"/>
    </edge>
    <edge id=":J5_17" function="internal">
        <lane id=":J5_17_0" index="0" allow="bicycle" speed="13.89" length="35.24" width="1.00" shape="-17.09,15.79 -6.79,16.96 0.11,19.24 7.02,21.44 17.33,22.40"/>
    </edge>
    <edge id=":J5_18" function="internal">
        <lane id=":J5_18_0" index="0" allow="bicycle" speed="13.43" length="25.11" width="1.00" shape="-17.09,15.79 -9.12,19.42 -0.26,27.92 2.10,31.24"/>
    </edge>
    <edge id=":J5_19" function="internal">
        <lane id=":J5_19_0" index="0" disallow="pedestrian" speed="7.49" length="1.09" shape="-17.13,17.89 -16.05,17.81"/>
    </edge>
    <edge id=":J5_20" function="internal">
        <lane id=":J5_20_0" index="0" disallow="pedestrian" speed="13.89" length="35.32" shape="-17.13,17.89 -6.81,19.06 0.10,21.34 7.02,23.54 17.34,24.50"/>
        <lane id=":J5_20_1" index="1" disallow="pedestrian" speed="13.89" length="35.32" shape="-17.18,21.09 -6.84,22.26 0.08,24.54 7.01,26.74 17.35,27.70"/>
    </edge>
    <edge id=":J5_22" function="internal">
        <lane id=":J5_22_0" index="0" disallow="pedestrian" speed="11.99" length="12.98" shape="-17.24,24.29 -10.07,26.58 -5.77,29.95"/>
        <lane id=":J5_22_1" index="1" disallow="pedestrian" speed="11.20" length="7.35" shape="-17.29,27.49 -10.63,29.28 -10.26,29.55"/>
    </edge>
    <edge id=":J5_37" function="internal">
        <lane id=":J5_37_0" index="0" allow="bicycle" speed="13.43" length="17.36" width="1.00" shape="2.10,31.24 6.92,38.05 9.83,46.59"/>
    </edge>
    <edge id=":J5_38" function="internal">
        <lane id=":J5_38_0" index="0" disallow="pedestrian" speed="7.49" length="11.32" shape="-16.05,17.81 -13.12,17.58 -10.25,16.47 -8.52,14.58 -7.92,11.90"/>
    </edge>
    <edge id=":J5_39" function="internal">
        <lane id=":J5_39_0" index="0" disallow="pedestrian" speed="11.99" length="20.05" shape="-5.77,29.95 -2.98,32.13 2.42,39.32 4.53,46.52"/>
    </edge>
    <edge id=":J5_40" function="internal">
        <lane id=":J5_40_0" index="0" disallow="pedestrian" speed="11.20" length="21.36" shape="-10.26,29.55 -4.62,33.72 -0.29,39.80 1.33,46.48"/>
    </edge>
    <edge id=":J5_24" function="internal">
        <lane id=":J5_24_0" index="0" allow="bicycle" speed="7.19" length="11.94" width="1.00" shape="-13.57,46.30 -13.76,41.82 -14.47,38.60 -15.70,36.66 -17.43,35.99"/>
    </edge>
    <edge id=":J5_25" function="internal">
        <lane id=":J5_25_0" index="0" allow="bicycle" speed="13.89" length="34.64" width="1.00" shape="-13.57,46.30 -12.94,36.06 -11.77,29.09 -10.61,22.13 -10.02,11.89"/>
    </edge>
    <edge id=":J5_26" function="internal">
        <lane id=":J5_26_0" index="0" allow="bicycle" speed="13.19" length="35.64" width="1.00" shape="-13.57,46.30 -9.95,39.15 -1.42,31.32 8.76,25.01 12.66,23.82"/>
    </edge>
    <edge id=":J5_27" function="internal">
        <lane id=":J5_27_0" index="0" disallow="pedestrian" speed="8.28" length="1.72" shape="-11.47,46.33 -11.57,44.61"/>
    </edge>
    <edge id=":J5_28" function="internal">
        <lane id=":J5_28_0" index="0" disallow="pedestrian" speed="13.89" length="34.59" shape="-11.47,46.33 -10.85,36.08 -9.67,29.12 -8.51,22.15 -7.92,11.90"/>
        <lane id=":J5_28_1" index="1" disallow="pedestrian" speed="13.89" length="34.59" shape="-8.27,46.37 -7.92,11.90"/>
        <lane id=":J5_28_2" index="2" disallow="pedestrian" speed="13.89" length="34.59" shape="-8.27,46.37 -7.65,36.12 -6.47,29.15 -5.31,22.18 -4.73,11.93"/>
        <lane id=":J5_28_3" index="3" disallow="pedestrian" speed="13.89" length="34.59" shape="-5.07,46.41 -4.73,11.93"/>
        <lane id=":J5_28_4" index="4" disallow="pedestrian" speed="13.89" length="34.59" shape="-5.07,46.41 -4.45,36.15 -3.27,29.18 -2.11,22.21 -1.53,11.95"/>
    </edge>
    <edge id=":J5_33" function="internal">
        <lane id=":J5_33_0" index="0" disallow="pedestrian" speed="11.30" length="28.94" shape="-1.87,46.45 -0.07,39.77 4.45,33.75 10.61,29.39 17.35,27.70"/>
    </edge>
    <edge id=":J5_41" function="internal">
        <lane id=":J5_41_0" index="0" allow="bicycle" speed="13.19" length="4.88" width="1.00" shape="12.66,23.82 17.33,22.40"/>
    </edge>
    <edge id=":J5_42" function="internal">
        <lane id=":J5_42_0" index="0" disallow="pedestrian" speed="8.28" length="13.49" shape="-11.57,44.61 -11.78,40.92 -12.88,37.05 -14.75,34.71 -17.40,33.89"/>
    </edge>
    <edge id=":J6_0" function="internal">
        <lane id=":J6_0_0" index="0" allow="bicycle" speed="13.89" length="8.64" width="1.00" shape="55.03,38.72 52.59,39.28 51.08,40.42 49.57,41.56 47.13,42.12"/>
        <lane id=":J6_0_1" index="1" disallow="pedestrian" speed="13.89" length="8.64" shape="54.98,36.62 52.53,37.18 51.03,38.32 49.52,39.46 47.08,40.02"/>
        <lane id=":J6_0_2" index="2" disallow="pedestrian" speed="13.89" length="8.64" shape="54.90,33.42 52.45,33.98 50.95,35.12 49.44,36.26 46.99,36.82"/>
        <lane id=":J6_0_3" index="3" disallow="pedestrian" speed="13.89" length="8.64" shape="54.82,30.22 52.37,30.78 50.86,31.92 49.35,33.06 46.91,33.62"/>
        <lane id=":J6_0_4" index="4" disallow="pedestrian" speed="13.89" length="8.64" shape="54.82,30.22 46.82,30.43"/>
    </edge>
    <edge id=":J6_5" function="internal">
        <lane id=":J6_5_0" index="0" allow="bicycle" speed="13.89" length="8.01" width="1.00" shape="46.60,21.93 54.61,21.72"/>
        <lane id=":J6_5_1" index="1" disallow="pedestrian" speed="13.89" length="8.01" shape="46.65,24.03 54.66,23.82"/>
        <lane id=":J6_5_2" index="2" disallow="pedestrian" speed="13.89" length="8.01" shape="46.74,27.23 54.74,27.02"/>
    </edge>
    <edge id=":J7_0" function="internal">
        <lane id=":J7_0_0" index="0" allow="bicycle" speed="13.89" length="0.51" width="1.00" shape="32.06,42.52 31.43,42.53"/>
        <lane id=":J7_0_1" index="1" disallow="pedestrian" speed="13.89" length="0.51" shape="32.00,40.42 31.42,40.43"/>
        <lane id=":J7_0_2" index="2" disallow="pedestrian" speed="13.89" length="0.51" shape="31.92,37.22 31.40,37.23"/>
        <lane id=":J7_0_3" index="3" disallow="pedestrian" speed="13.89" length="0.51" shape="31.83,34.02 31.39,34.03"/>
        <lane id=":J7_0_4" index="4" disallow="pedestrian" speed="13.89" length="0.51" shape="31.75,30.82 31.37,30.83"/>
    </edge>
    <edge id=":J7_5" function="internal">
        <lane id=":J7_5_0" index="0" allow="bicycle" speed="13.89" length="0.24" width="1.00" shape="31.33,22.33 31.52,22.33"/>
        <lane id=":J7_5_1" index="1" disallow="pedestrian" speed="13.89" length="0.24" shape="31.34,24.43 31.58,24.43"/>
        <lane id=":J7_5_2" index="2" disallow="pedestrian" speed="13.89" length="0.24" shape="31.36,27.63 31.66,27.62"/>
    </edge>
    <edge id=":J8_0" function="internal">
        <lane id=":J8_0_0" index="0" allow="bicycle" speed="13.89" length="0.21" width="1.00" shape="-42.11,35.57 -42.29,35.57"/>
        <lane id=":J8_0_1" index="1" disallow="pedestrian" speed="13.89" length="0.21" shape="-42.07,33.47 -42.28,33.47"/>
        <lane id=":J8_0_2" index="2" disallow="pedestrian" speed="13.89" length="0.21" shape="-42.02,30.27 -42.26,30.27"/>
    </edge>
    <edge id=":J8_3" function="internal">
        <lane id=":J8_3_0" index="0" allow="bicycle" speed="13.89" length="0.35" width="1.00" shape="-42.17,15.37 -41.77,15.37"/>
        <lane id=":J8_3_1" index="1" disallow="pedestrian" speed="13.89" length="0.35" shape="-42.18,17.47 -41.80,17.47"/>
        <lane id=":J8_3_2" index="2" disallow="pedestrian" speed="13.89" length="0.35" shape="-42.20,20.67 -41.86,20.67"/>
        <lane id=":J8_3_3" index="3" disallow="pedestrian" speed="13.89" length="0.35" shape="-42.22,23.87 -41.91,23.87"/>
        <lane id=":J8_3_4" index="4" disallow="pedestrian" speed="13.89" length="0.35" shape="-42.24,27.07 -41.96,27.07"/>
    </edge>

    <edge id="-E0" from="J5" to="J4" priority="-1">
        <lane id="-E0_0" index="0" allow="pedestrian" speed="13.89" length="14.21" width="2.00" shape="11.33,46.61 11.15,60.82"/>
        <lane id="-E0_1" index="1" allow="bicycle" speed="13.89" length="14.21" width="1.00" shape="9.83,46.59 9.65,60.80"/>
        <lane id="-E0_2" index="2" disallow="pedestrian" speed="13.89" length="14.21" shape="7.73,46.56 7.55,60.78"/>
        <lane id="-E0_3" index="3" disallow="pedestrian" speed="13.89" length="14.21" shape="4.53,46.52 4.35,60.74"/>
        <lane id="-E0_4" index="4" disallow="pedestrian" speed="13.89" length="14.21" shape="1.33,46.48 1.15,60.70"/>
    </edge>
    <edge id="-E1" from="J0" to="J4" priority="-1">
        <lane id="-E1_0" index="0" allow="pedestrian" speed="13.89" length="19.77" width="2.00" shape="-14.97,81.14 -15.24,61.38"/>
        <lane id="-E1_1" index="1" allow="bicycle" speed="13.89" length="19.77" width="1.00" shape="-13.47,81.12 -13.74,61.36"/>
        <lane id="-E1_2" index="2" disallow="pedestrian" speed="13.89" length="19.77" shape="-11.37,81.09 -11.65,61.33"/>
        <lane id="-E1_3" index="3" disallow="pedestrian" speed="13.89" length="19.77" shape="-8.17,81.05 -8.45,61.29"/>
        <lane id="-E1_4" index="4" disallow="pedestrian" speed="13.89" length="19.77" shape="-4.97,81.01 -5.25,61.24"/>
        <lane id="-E1_5" index="5" disallow="pedestrian" speed="13.89" length="19.77" shape="-1.77,80.96 -2.05,61.20"/>
    </edge>
    <edge id="-E10" from="J12" to="J3" priority="-1">
        <lane id="-E10_0" index="0" allow="pedestrian" speed="13.89" length="59.50" width="2.00" shape="-126.40,16.85 -66.90,16.94"/>
        <lane id="-E10_1" index="1" allow="bicycle" speed="13.89" length="59.50" width="1.00" shape="-126.40,18.35 -66.91,18.44"/>
        <lane id="-E10_2" index="2" disallow="pedestrian" speed="13.89" length="59.50" shape="-126.41,20.45 -66.91,20.54"/>
        <lane id="-E10_3" index="3" disallow="pedestrian" speed="13.89" length="59.50" shape="-126.41,23.65 -66.92,23.74"/>
        <lane id="-E10_4" index="4" disallow="pedestrian" speed="13.89" length="59.50" shape="-126.42,26.85 -66.92,26.94"/>
    </edge>
    <edge id="-E2" from="J1" to="J10" priority="-1">
        <lane id="-E2_0" index="0" allow="pedestrian" speed="13.89" length="63.53" width="2.00" shape="14.22,-59.05 14.93,4.47"/>
        <lane id="-E2_1" index="1" allow="bicycle" speed="13.89" length="63.53" width="1.00" shape="12.72,-59.04 13.43,4.49"/>
        <lane id="-E2_2" index="2" disallow="pedestrian" speed="13.89" length="63.53" shape="10.62,-59.01 11.33,4.51"/>
        <lane id="-E2_3" index="3" disallow="pedestrian" speed="13.89" length="63.53" shape="7.42,-58.98 8.13,4.55"/>
        <lane id="-E2_4" index="4" disallow="pedestrian" speed="13.89" length="63.53" shape="4.22,-58.94 4.93,4.58"/>
        <lane id="-E2_5" index="5" disallow="pedestrian" speed="13.89" length="63.53" shape="1.02,-58.91 1.73,4.62"/>
    </edge>
    <edge id="-E3" from="J8" to="J5" priority="-1" shape="-42.12,28.67 -16.22,29.11 -0.06,29.38">
        <lane id="-E3_0" index="0" allow="pedestrian" speed="13.89" length="24.68" width="2.00" shape="-41.74,13.87 -17.07,14.29"/>
        <lane id="-E3_1" index="1" allow="bicycle" speed="13.89" length="24.68" width="1.00" shape="-41.77,15.37 -17.09,15.79"/>
        <lane id="-E3_2" index="2" disallow="pedestrian" speed="13.89" length="24.68" shape="-41.80,17.47 -17.13,17.89"/>
        <lane id="-E3_3" index="3" disallow="pedestrian" speed="13.89" length="24.68" shape="-41.86,20.67 -17.18,21.09"/>
        <lane id="-E3_4" index="4" disallow="pedestrian" speed="13.89" length="24.68" shape="-41.91,23.87 -17.24,24.29"/>
        <lane id="-E3_5" index="5" disallow="pedestrian" speed="13.89" length="24.68" shape="-41.96,27.07 -17.29,27.49"/>
    </edge>
    <edge id="-E4" from="J10" to="J5" priority="-1" shape="0.13,4.84 0.09,10.08 -0.06,29.38">
        <lane id="-E4_0" index="0" allow="pedestrian" speed="13.89" length="6.96" width="2.00" shape="14.93,5.12 14.89,10.19 14.87,12.08"/>
        <lane id="-E4_1" index="1" allow="bicycle" speed="13.89" length="6.96" width="1.00" shape="13.43,5.11 13.39,10.18 13.37,12.07"/>
        <lane id="-E4_2" index="2" disallow="pedestrian" speed="13.89" length="6.96" shape="11.33,5.09 11.29,10.17 11.27,12.05"/>
        <lane id="-E4_3" index="3" disallow="pedestrian" speed="13.89" length="6.96" shape="8.13,5.07 8.09,10.14 8.08,12.03"/>
        <lane id="-E4_4" index="4" disallow="pedestrian" speed="13.89" length="6.96" shape="4.93,5.04 4.89,10.12 4.88,12.00"/>
        <lane id="-E4_5" index="5" disallow="pedestrian" speed="13.89" length="6.96" shape="1.73,5.02 1.69,10.09 1.68,11.98"/>
    </edge>
    <edge id="-E5" from="J5" to="J7" priority="-1">
        <lane id="-E5_0" index="0" allow="pedestrian" speed="13.89" length="14.00" width="2.00" shape="17.32,20.90 31.32,20.83"/>
        <lane id="-E5_1" index="1" allow="bicycle" speed="13.89" length="14.00" width="1.00" shape="17.33,22.40 31.33,22.33"/>
        <lane id="-E5_2" index="2" disallow="pedestrian" speed="13.89" length="14.00" shape="17.34,24.50 31.34,24.43"/>
        <lane id="-E5_3" index="3" disallow="pedestrian" speed="13.89" length="14.00" shape="17.35,27.70 31.36,27.63"/>
    </edge>
    <edge id="-E6" from="J3" to="J8" priority="-1">
        <lane id="-E6_0" index="0" allow="pedestrian" speed="13.89" length="16.69" width="2.00" shape="-58.85,13.77 -42.16,13.87"/>
        <lane id="-E6_1" index="1" allow="bicycle" speed="13.89" length="16.69" width="1.00" shape="-58.86,15.27 -42.17,15.37"/>
        <lane id="-E6_2" index="2" disallow="pedestrian" speed="13.89" length="16.69" shape="-58.87,17.37 -42.18,17.47"/>
        <lane id="-E6_3" index="3" disallow="pedestrian" speed="13.89" length="16.69" shape="-58.89,20.57 -42.20,20.67"/>
        <lane id="-E6_4" index="4" disallow="pedestrian" speed="13.89" length="16.69" shape="-58.91,23.77 -42.22,23.87"/>
        <lane id="-E6_5" index="5" disallow="pedestrian" speed="13.89" length="16.69" shape="-58.92,26.97 -42.24,27.07"/>
    </edge>
    <edge id="-E7" from="J6" to="J7" priority="-1">
        <lane id="-E7_0" index="0" allow="pedestrian" speed="13.89" length="15.08" width="2.00" shape="47.17,43.62 32.09,44.02"/>
        <lane id="-E7_1" index="1" allow="bicycle" speed="13.89" length="15.08" width="1.00" shape="47.13,42.12 32.06,42.52"/>
        <lane id="-E7_2" index="2" disallow="pedestrian" speed="13.89" length="15.08" shape="47.08,40.02 32.00,40.42"/>
        <lane id="-E7_3" index="3" disallow="pedestrian" speed="13.89" length="15.08" shape="46.99,36.82 31.92,37.22"/>
        <lane id="-E7_4" index="4" disallow="pedestrian" speed="13.89" length="15.08" shape="46.91,33.62 31.83,34.02"/>
        <lane id="-E7_5" index="5" disallow="pedestrian" speed="13.89" length="15.08" shape="46.82,30.43 31.75,30.82"/>
    </edge>
    <edge id="-E8" from="J9" to="J6" priority="-1">
        <lane id="-E8_0" index="0" allow="pedestrian" speed="13.89" length="50.56" width="2.00" shape="105.61,38.99 55.06,40.22"/>
        <lane id="-E8_1" index="1" allow="bicycle" speed="13.89" length="50.56" width="1.00" shape="105.58,37.49 55.03,38.72"/>
        <lane id="-E8_2" index="2" disallow="pedestrian" speed="13.89" length="50.56" shape="105.52,35.39 54.98,36.62"/>
        <lane id="-E8_3" index="3" disallow="pedestrian" speed="13.89" length="50.56" shape="105.45,32.19 54.90,33.42"/>
        <lane id="-E8_4" index="4" disallow="pedestrian" speed="13.89" length="50.56" shape="105.37,28.99 54.82,30.22"/>
    </edge>
    <edge id="-E9" from="J11" to="J0" priority="-1">
        <lane id="-E9_0" index="0" allow="pedestrian" speed="13.89" length="52.30" width="2.00" shape="-12.07,141.16 -11.74,88.86"/>
        <lane id="-E9_1" index="1" allow="bicycle" speed="13.89" length="52.30" width="1.00" shape="-10.57,141.17 -10.24,88.87"/>
        <lane id="-E9_2" index="2" disallow="pedestrian" speed="13.89" length="52.30" shape="-8.47,141.18 -8.14,88.89"/>
        <lane id="-E9_3" index="3" disallow="pedestrian" speed="13.89" length="52.30" shape="-5.27,141.20 -4.94,88.91"/>
        <lane id="-E9_4" index="4" disallow="pedestrian" speed="13.89" length="52.30" shape="-2.07,141.22 -1.74,88.93"/>
    </edge>
    <edge id="E0" from="J4" to="J5" priority="-1">
        <lane id="E0_0" index="0" allow="pedestrian" speed="13.89" length="14.21" width="2.00" shape="-15.25,60.49 -15.07,46.28"/>
        <lane id="E0_1" index="1" allow="bicycle" speed="13.89" length="14.21" width="1.00" shape="-13.75,60.51 -13.57,46.30"/>
        <lane id="E0_2" index="2" disallow="pedestrian" speed="13.89" length="14.21" shape="-11.65,60.54 -11.47,46.33"/>
        <lane id="E0_3" index="3" disallow="pedestrian" speed="13.89" length="14.21" shape="-8.45,60.58 -8.27,46.37"/>
        <lane id="E0_4" index="4" disallow="pedestrian" speed="13.89" length="14.21" shape="-5.25,60.62 -5.07,46.41"/>
        <lane id="E0_5" index="5" disallow="pedestrian" speed="13.89" length="14.21" shape="-2.05,60.66 -1.87,46.45"/>
    </edge>
    <edge id="E1" from="J4" to="J0" priority="-1">
        <lane id="E1_0" index="0" allow="pedestrian" speed="13.89" length="19.77" width="2.00" shape="11.15,61.02 11.42,80.78"/>
        <lane id="E1_1" index="1" allow="bicycle" speed="13.89" length="19.77" width="1.00" shape="9.65,61.04 9.92,80.80"/>
        <lane id="E1_2" index="2" disallow="pedestrian" speed="13.89" length="19.77" shape="7.55,61.07 7.82,80.83"/>
        <lane id="E1_3" index="3" disallow="pedestrian" speed="13.89" length="19.77" shape="4.35,61.11 4.62,80.87"/>
        <lane id="E1_4" index="4" disallow="pedestrian" speed="13.89" length="19.77" shape="1.15,61.15 1.43,80.92"/>
    </edge>
    <edge id="E10" from="J3" to="J12" priority="-1">
        <lane id="E10_0" index="0" allow="pedestrian" speed="13.89" length="59.50" width="2.00" shape="-66.94,36.94 -126.43,36.85"/>
        <lane id="E10_1" index="1" allow="bicycle" speed="13.89" length="59.50" width="1.00" shape="-66.93,35.44 -126.43,35.35"/>
        <lane id="E10_2" index="2" disallow="pedestrian" speed="13.89" length="59.50" shape="-66.93,33.34 -126.43,33.25"/>
        <lane id="E10_3" index="3" disallow="pedestrian" speed="13.89" length="59.50" shape="-66.93,30.14 -126.42,30.05"/>
    </edge>
    <edge id="E2" from="J10" to="J1" priority="-1">
        <lane id="E2_0" index="0" allow="pedestrian" speed="13.89" length="63.53" width="2.00" shape="-11.47,4.77 -12.18,-58.76"/>
        <lane id="E2_1" index="1" allow="bicycle" speed="13.89" length="63.53" width="1.00" shape="-9.97,4.75 -10.68,-58.78"/>
        <lane id="E2_2" index="2" disallow="pedestrian" speed="13.89" length="63.53" shape="-7.87,4.73 -8.58,-58.80"/>
        <lane id="E2_3" index="3" disallow="pedestrian" speed="13.89" length="63.53" shape="-4.67,4.69 -5.38,-58.84"/>
        <lane id="E2_4" index="4" disallow="pedestrian" speed="13.89" length="63.53" shape="-1.47,4.66 -2.18,-58.87"/>
    </edge>
    <edge id="E3" from="J5" to="J8" priority="-1" shape="-0.06,29.38 -16.22,29.11 -42.12,28.67">
        <lane id="E3_0" index="0" allow="pedestrian" speed="13.89" length="24.68" width="2.00" shape="-17.46,37.49 -42.13,37.07"/>
        <lane id="E3_1" index="1" allow="bicycle" speed="13.89" length="24.68" width="1.00" shape="-17.43,35.99 -42.11,35.57"/>
        <lane id="E3_2" index="2" disallow="pedestrian" speed="13.89" length="24.68" shape="-17.40,33.89 -42.07,33.47"/>
        <lane id="E3_3" index="3" disallow="pedestrian" speed="13.89" length="24.68" shape="-17.34,30.69 -42.02,30.27"/>
    </edge>
    <edge id="E4" from="J5" to="J10" priority="-1">
        <lane id="E4_0" index="0" allow="pedestrian" speed="13.89" length="6.96" width="2.00" shape="-11.52,11.88 -11.47,4.92"/>